BallState/Ball_State_VLL.Txt

SYMMETRICAL COMPONENT PHASE-PHASE VOLTAGES BY BUS (for 3-phase buses)

Bus                              Mag:   V1 (kV)    p.u.     V2 (kV)   %V2/V1    V0 (kV)    %V0/V1

sourcebus                              26       1.04  1.103E-008  4.241E-008 4.547E-015 1.749E-014
substation                          4.259      1.024  1.83E-009  4.296E-008 5.684E-016 1.335E-014
johnson_dr_parking_entarnce         4.249      1.021  1.826E-009  4.298E-008 5.084E-016 1.197E-014
johnson_dr_parking_end              4.249      1.021  1.826E-009  4.298E-008 4.099E-016 9.647E-015
2000_w_university_ave               4.244       1.02  1.824E-009  4.299E-008 5.084E-016 1.198E-014
carmichael_hall_1                   4.243       1.02  1.824E-009  4.299E-008 6.122E-016 1.443E-014
carmichael_hall_2                   4.243       1.02  1.824E-009  4.299E-008 5.084E-016 1.198E-014
schmidt_wilson_hall_1               4.236      1.018  1.822E-009  4.301E-008 5.084E-016  1.2E-014
schmidt_wilson_hall_2               4.236      1.018  1.822E-009  4.301E-008 3.216E-016 7.591E-015
johnson_complex                     4.227      1.016  1.819E-009  4.303E-008 2.274E-016 5.379E-015
johnson__mckenley_avn_1             4.219      1.014  1.816E-009  4.305E-008 5.684E-016 1.347E-014
mckenley_avn_1                      4.218      1.014  1.816E-009  4.305E-008 4.547E-016 1.078E-014
mckenley_circle                     4.218      1.014  1.816E-009  4.305E-008 4.099E-016 9.717E-015
parking_c1_1                        4.218      1.014  1.816E-009  4.305E-008 3.216E-016 7.623E-015
mckenley_avn_2                      4.218      1.014  1.816E-009  4.305E-008 8.198E-016 1.943E-014
parking_c1_2                        4.218      1.014  1.816E-009  4.305E-008 4.099E-016 9.717E-015
tennis_courts                       4.218      1.014  1.816E-009  4.305E-008 5.084E-016 1.205E-014
parking_g2n_1                       4.218      1.014  1.815E-009  4.304E-008 2.542E-016 6.027E-015
parking_g2n_2                       4.218      1.014  1.815E-009  4.302E-008 3.216E-016 7.624E-015
parking_g2_1                        4.218      1.014  1.814E-009  4.301E-008 4.547E-016 1.078E-014
parking_g2_2                        4.217      1.014  1.814E-009  4.301E-008 5.684E-016 1.348E-014
parking_g2_3                        4.218      1.014  1.814E-009  4.301E-008 1.137E-016 2.696E-015
parking_h7_2                        4.218      1.014  1.814E-009  4.301E-008 5.084E-016 1.205E-014
parking_h7_1                        4.217      1.014  1.814E-009  4.301E-008 4.099E-016 9.719E-015
worthen_arena                       4.217      1.014  1.814E-009  4.301E-008 4.099E-016 9.72E-015
hurst_hall_1                        4.212      1.012  1.814E-009  4.307E-008 4.099E-016 9.732E-015
hurst_hall_2                        4.212      1.012  1.814E-009  4.307E-008 5.084E-016 1.207E-014
parking_r2_1                          4.2       1.01  1.811E-009  4.312E-008 4.099E-016 9.759E-015
parking_r2_2                          4.2       1.01  1.811E-009  4.312E-008 6.122E-016 1.458E-014
w_pettty_rd_1                       4.196      1.009  1.81E-009  4.314E-008 3.216E-016 7.663E-015
robert_bell_building_1              4.195      1.008  1.81E-009  4.316E-008 4.547E-016 1.084E-014
robert_bell_building_2              4.194      1.008  1.81E-009  4.316E-008 3.216E-016 7.666E-015
coll_of_comm_1                      4.193      1.008  1.81E-009  4.318E-008 2.274E-016 5.423E-015
coll_of_comm_2                      4.193      1.008  1.81E-009  4.318E-008 5.084E-016 1.213E-014
telecomms_1                         4.191      1.007  1.81E-009  4.32E-008 3.216E-016 7.672E-015
telecomms_2                         4.191      1.007  1.81E-009  4.32E-008 3.216E-016 7.672E-015
journalism                          4.189      1.007  1.811E-009  4.324E-008 3.411E-016 8.142E-015
teachers_college                    4.187      1.006  1.812E-009  4.328E-008 5.684E-016 1.358E-014
mckenley_avn_3                      4.184      1.006  1.813E-009  4.332E-008 4.099E-016 9.796E-015
north_quadrangle_building           4.184      1.006  1.812E-009  4.332E-008 7.28E-016 1.74E-014
art_museum                          4.183      1.006  1.812E-009  4.331E-008 3.411E-016 8.154E-015
science_building                    4.182      1.005  1.811E-009  4.331E-008 6.431E-016 1.538E-014
river_side_avn                      4.182      1.005  1.811E-009  4.331E-008 5.084E-016 1.216E-014
ball_gym                            4.182      1.005  1.811E-009  4.331E-008 1.137E-016 2.718E-015
richard_w_burkhardt_building        4.183      1.006  1.813E-009  4.334E-008 3.216E-016 7.687E-015
university_avn_1                    4.183      1.005  1.813E-009  4.335E-008 2.274E-016 5.436E-015
admin_building_1                    4.182      1.005  1.814E-009  4.336E-008 4.099E-016 9.801E-015
admin_building_2                    4.182      1.005  1.814E-009  4.336E-008 4.099E-016 9.801E-015
welcome_center_1                    4.182      1.005  1.813E-009  4.336E-008 3.411E-016 8.156E-015
welcome_center_2                    4.182      1.005  1.813E-009  4.336E-008 5.084E-016 1.216E-014
parking_g15                         4.181      1.005  1.812E-009  4.335E-008 3.411E-016 8.157E-015
grounds_building                    4.181      1.005  1.812E-009  4.334E-008 5.084E-016 1.216E-014
tessis_courts_2                     4.181      1.005  1.812E-009  4.334E-008 4.099E-016 9.804E-015
west_quadrangle_building            4.181      1.005  1.812E-009  4.334E-008 5.084E-016 1.216E-014
mckenley_avn_4                      4.182      1.005  1.813E-009  4.336E-008 6.122E-016 1.464E-014
student_center                      4.182      1.005  1.813E-009  4.336E-008 3.216E-016 7.688E-015
mckinley_structure                  4.183      1.006  1.813E-009  4.334E-008 2.274E-016 5.436E-015
river_side_avn_2                    4.184      1.006  1.813E-009  4.333E-008 7.28E-016 1.74E-014
music_hall                          4.184      1.006  1.813E-009  4.333E-008 5.084E-016 1.215E-014
river_side_avn_3                    4.184      1.006  1.813E-009  4.333E-008 6.431E-016 1.537E-014
river_side_avn_4                    4.183      1.006  1.812E-009  4.331E-008 4.099E-016 9.799E-015
dehority_complex                    4.183      1.006  1.812E-009  4.331E-008 4.099E-016 9.799E-015
student_recreation                  4.191      1.007  1.808E-009  4.314E-008 4.547E-016 1.085E-014
neely_avn_1                         4.189      1.007  1.807E-009  4.314E-008 4.099E-016 9.786E-015
idia_lab                            4.191      1.007  1.808E-009  4.314E-008 7.28E-016 1.737E-014
neely_avn_2                         4.187      1.006  1.806E-009  4.314E-008 4.547E-016 1.086E-014
parking_r5_1                        4.186      1.006  1.806E-009  4.314E-008 3.216E-016 7.682E-015
parking_r5_2                        4.186      1.006  1.806E-009  4.314E-008 6.122E-016 1.463E-014
noyer_dr_1                          4.184      1.006  1.805E-009  4.314E-008 3.411E-016 8.151E-015
noyer_complex                       4.183      1.006  1.805E-009  4.315E-008 2.542E-016 6.077E-015
noyer_dr_2                          4.182      1.005  1.804E-009  4.314E-008 4.547E-016 1.087E-014
park_hall                           4.182      1.005  1.804E-009  4.315E-008 2.542E-016 6.079E-015
emens_structure                     4.182      1.005  1.804E-009  4.314E-008 5.084E-016 1.216E-014
noyer_dr_3                          4.181      1.005  1.804E-009  4.314E-008 5.684E-016 1.359E-014
library                             4.181      1.005  1.804E-009  4.314E-008 4.099E-016 9.804E-015
parking_p9                          4.181      1.005  1.803E-009  4.314E-008 6.431E-016 1.538E-014
woodworth_complex                   4.181      1.005  1.803E-009  4.314E-008 6.122E-016 1.464E-014
business_college                    4.185      1.006  1.806E-009  4.314E-008 5.084E-016 1.215E-014
noyer_dr_4                          4.184      1.006  1.805E-009  4.314E-008 6.431E-016 1.537E-014
noyer_dr_5                          4.184      1.006  1.805E-009  4.314E-008 2.542E-016 6.076E-015
noyer_dr_6                          4.183      1.006  1.805E-009  4.315E-008 6.122E-016 1.463E-014
studebaker_east                     4.183      1.006  1.805E-009  4.315E-008 5.084E-016 1.215E-014
health_center                       4.184      1.006  1.805E-009  4.314E-008 6.431E-016 1.537E-014
micro_cafe                          4.183      1.006  1.805E-009  4.314E-008 5.084E-016 1.215E-014
food_shop                           4.184      1.006  1.805E-009  4.314E-008 4.547E-016 1.087E-014
johnson_dr_parking_entarnce_lv     0.1672     0.3484  8.326E-011  4.979E-008 2.487E-017 1.487E-014
johnson_dr_parking_end_lv          0.1672     0.3484  8.326E-011  4.979E-008 2.842E-017 1.699E-014
parking_c1_2_lv                     0.166     0.3459  8.306E-011  5.003E-008 2.247E-017 1.353E-014
parking_c1_1_lv                     0.166     0.3459  8.306E-011  5.003E-008 1.913E-017 1.152E-014
tennis_courts_lv                    0.166     0.3459  8.307E-011  5.003E-008 2.842E-017 1.712E-014
parking_g2n_1_lv                    0.166     0.3458  8.304E-011  5.003E-008 1.589E-017 9.571E-015
parking_g2n_2_lv                    0.166     0.3458  8.303E-011  5.002E-008 2.586E-017 1.558E-014
parking_g2_2_lv                     0.166     0.3458  8.303E-011  5.002E-008 2.487E-017 1.498E-014
parking_g2_3_lv                     0.166     0.3458  8.303E-011  5.002E-008 1.913E-017 1.153E-014
parking_h7_2_lv                     0.166     0.3458  8.304E-011  5.002E-008 2.247E-017 1.354E-014
parking_h7_1_lv                     0.166     0.3458  8.303E-011  5.002E-008 2.132E-017 1.284E-014
parking_r2_1_lv                    0.1653     0.3444  8.292E-011  5.016E-008 2.247E-017 1.359E-014
parking_r2_2_lv                    0.1653     0.3444  8.292E-011  5.016E-008 2.247E-017 1.359E-014
mckenley_avn_4_lv                  0.1646      0.343  8.298E-011  5.04E-008 2.842E-017 1.726E-014
parking_r5_2_lv                    0.1647     0.3432  8.284E-011  5.028E-008 2.864E-017 1.739E-014
schmidt_wilson_hall_2_lv            0.165     0.3438  8.233E-011  4.989E-008 2.586E-017 1.567E-014
carmichael_hall_2_lv               0.1655     0.3448  8.247E-011  4.983E-008 2.247E-017 1.358E-014
johnson_complex_lv                 0.1644     0.3426  8.213E-011  4.995E-008 1.776E-017 1.08E-014
worthen_arena_lv                   0.1648     0.3434  8.245E-011  5.002E-008 2.586E-017 1.569E-014
hurst_hall_2_lv                    0.1647     0.3432  8.247E-011  5.007E-008 2.487E-017 1.51E-014
robert_bell_building_2_lv          0.1633     0.3402  8.201E-011  5.021E-008 2.864E-017 1.754E-014
coll_of_comm_2_lv                  0.1636     0.3409  8.219E-011  5.024E-008 2.247E-017 1.373E-014
telecomms_2_lv                     0.1633     0.3402  8.206E-011  5.025E-008 2.247E-017 1.376E-014
journalism_lv                      0.1637     0.3411  8.235E-011  5.029E-008 1.776E-017 1.085E-014
teachers_college_lv                0.1648     0.3433  8.295E-011  5.034E-008 2.586E-017 1.569E-014
north_quadrangle_building_lv       0.1647     0.3431  8.297E-011  5.038E-008 2.487E-017 1.51E-014
art_museum_lv                      0.1642      0.342  8.271E-011  5.038E-008 2.586E-017 1.575E-014
science_building_lv                0.1624     0.3384  8.184E-011  5.038E-008 2.93E-017 1.803E-014
ball_gym_lv                        0.1638     0.3412  8.252E-011  5.038E-008 2.842E-017 1.735E-014
richard_w_burkhardt_building_lv     0.164     0.3417  8.266E-011  5.039E-008 2.586E-017 1.577E-014
mckinley_structure_lv              0.1636     0.3408  8.243E-011  5.039E-008 2.132E-017 1.303E-014
admin_building_2_lv                0.1643     0.3423  8.284E-011  5.042E-008 2.247E-017 1.367E-014
welcome_center_2_lv                0.1644     0.3426  8.293E-011  5.043E-008 2.132E-017 1.296E-014
grounds_building_lv                0.1644     0.3426  8.296E-011  5.045E-008 1.421E-017 8.642E-015
tessis_courts_2_lv                 0.1646     0.3429  8.304E-011  5.045E-008 2.247E-017 1.365E-014
west_quadrangle_building_lv        0.1635     0.3406  8.249E-011  5.045E-008 1.776E-017 1.087E-014
student_center_lv                  0.1641     0.3418  8.27E-011  5.041E-008 2.247E-017 1.369E-014
music_hall_lv                      0.1642     0.3421  8.274E-011  5.039E-008 2.247E-017 1.368E-014
dehority_complex_lv                0.1631     0.3397  8.215E-011  5.037E-008 2.132E-017 1.307E-014
idia_lab_lv                        0.1628     0.3392  8.178E-011  5.023E-008 1.066E-017 6.547E-015
business_college_lv                0.1627      0.339  8.182E-011  5.028E-008 2.132E-017 1.31E-014
noyer_complex_lv                   0.1621     0.3377  8.152E-011  5.029E-008 2.487E-017 1.534E-014
park_hall_lv                       0.1622     0.3379  8.157E-011  5.03E-008 2.247E-017 1.385E-014
emens_structure_lv                 0.1643     0.3423  8.263E-011  5.03E-008 2.586E-017 1.574E-014
woodworth_complex_lv               0.1627      0.339  8.182E-011  5.028E-008 2.487E-017 1.528E-014
health_center_lv                   0.1631     0.3399  8.207E-011  5.031E-008 1.421E-017 8.711E-015
studebaker_east_lv                 0.1635     0.3406  8.228E-011  5.032E-008 2.586E-017 1.582E-014
micro_cafe_lv                      0.1637      0.341  8.235E-011  5.032E-008 2.586E-017 1.58E-014
library_lv                         0.1634     0.3404  8.216E-011  5.029E-008 2.132E-017 1.305E-014
student_recreation_lv              0.1618     0.3371  8.127E-011  5.023E-008 2.93E-017 1.811E-014
